*SPEF "IEEE 1481-1998"
*DESIGN "filter"
*DATE "Mon Oct 19 10:02:43 2020"
*VENDOR "Cadence Design Systems, Inc."
*PROGRAM "Innovus"
*VERSION "17.11-s080_1"
*DESIGN_FLOW "COUPLING C" "PIN_CAP NONE" "NAME_SCOPE LOCAL"
*DIVIDER /
*DELIMITER :
*BUS_DELIMITER []
*T_UNIT 1 NS
*C_UNIT 1 PF
*R_UNIT 1 OHM
*L_UNIT 1 HENRY

// MMMC spef file for corner 'my_rc'

*NAME_MAP

*1 VIN
*2 RST_n
*3 CLK
*4 DIN[11]
*5 DIN[10]
*6 DIN[9]
*7 DIN[8]
*8 DIN[7]
*9 DIN[6]
*10 DIN[5]
*11 DIN[4]
*12 DIN[3]
*13 DIN[2]
*14 DIN[1]
*15 DIN[0]
*16 B0[11]
*17 B0[10]
*18 B0[9]
*19 B0[8]
*20 B0[7]
*21 B0[6]
*22 B0[5]
*23 B0[4]
*24 B0[3]
*25 B0[2]
*26 B0[1]
*27 B0[0]
*28 B1[11]
*29 B1[10]
*30 B1[9]
*31 B1[8]
*32 B1[7]
*33 B1[6]
*34 B1[5]
*35 B1[4]
*36 B1[3]
*37 B1[2]
*38 B1[1]
*39 B1[0]
*40 B2[11]
*41 B2[10]
*42 B2[9]
*43 B2[8]
*44 B2[7]
*45 B2[6]
*46 B2[5]
*47 B2[4]
*48 B2[3]
*49 B2[2]
*50 B2[1]
*51 B2[0]
*52 B3[11]
*53 B3[10]
*54 B3[9]
*55 B3[8]
*56 B3[7]
*57 B3[6]
*58 B3[5]
*59 B3[4]
*60 B3[3]
*61 B3[2]
*62 B3[1]
*63 B3[0]
*64 B4[11]
*65 B4[10]
*66 B4[9]
*67 B4[8]
*68 B4[7]
*69 B4[6]
*70 B4[5]
*71 B4[4]
*72 B4[3]
*73 B4[2]
*74 B4[1]
*75 B4[0]
*76 B5[11]
*77 B5[10]
*78 B5[9]
*79 B5[8]
*80 B5[7]
*81 B5[6]
*82 B5[5]
*83 B5[4]
*84 B5[3]
*85 B5[2]
*86 B5[1]
*87 B5[0]
*88 B6[11]
*89 B6[10]
*90 B6[9]
*91 B6[8]
*92 B6[7]
*93 B6[6]
*94 B6[5]
*95 B6[4]
*96 B6[3]
*97 B6[2]
*98 B6[1]
*99 B6[0]
*100 B7[11]
*101 B7[10]
*102 B7[9]
*103 B7[8]
*104 B7[7]
*105 B7[6]
*106 B7[5]
*107 B7[4]
*108 B7[3]
*109 B7[2]
*110 B7[1]
*111 B7[0]
*112 B8[11]
*113 B8[10]
*114 B8[9]
*115 B8[8]
*116 B8[7]
*117 B8[6]
*118 B8[5]
*119 B8[4]
*120 B8[3]
*121 B8[2]
*122 B8[1]
*123 B8[0]
*124 DOUT[11]
*125 DOUT[10]
*126 DOUT[9]
*127 DOUT[8]
*128 DOUT[7]
*129 DOUT[6]
*130 DOUT[5]
*131 DOUT[4]
*132 DOUT[3]
*133 DOUT[2]
*134 DOUT[1]
*135 DOUT[0]
*136 VOUT
*137 FE_OFN4_RST_n
*138 FE_OFN3_RST_n
*139 FE_OFN2_VIN
*140 FE_OFN1_VIN
*141 FE_OFN0_VIN
*142 D_tmp_1__11_
*143 D_tmp_1__10_
*144 D_tmp_1__9_
*145 D_tmp_1__8_
*146 D_tmp_1__7_
*147 D_tmp_1__6_
*148 D_tmp_1__5_
*149 D_tmp_1__4_
*150 D_tmp_1__3_
*151 D_tmp_1__2_
*152 D_tmp_1__1_
*153 D_tmp_1__0_
*154 D_tmp_2__11_
*155 D_tmp_2__10_
*156 D_tmp_2__9_
*157 D_tmp_2__8_
*158 D_tmp_2__7_
*159 D_tmp_2__6_
*160 D_tmp_2__5_
*161 D_tmp_2__4_
*162 D_tmp_2__3_
*163 D_tmp_2__2_
*164 D_tmp_2__1_
*165 D_tmp_2__0_
*166 D_tmp_3__11_
*167 D_tmp_3__10_
*168 D_tmp_3__9_
*169 D_tmp_3__8_
*170 D_tmp_3__7_
*171 D_tmp_3__6_
*172 D_tmp_3__5_
*173 D_tmp_3__4_
*174 D_tmp_3__3_
*175 D_tmp_3__2_
*176 D_tmp_3__1_
*177 D_tmp_3__0_
*178 D_tmp_4__11_
*179 D_tmp_4__10_
*180 D_tmp_4__9_
*181 D_tmp_4__8_
*182 D_tmp_4__7_
*183 D_tmp_4__6_
*184 D_tmp_4__5_
*185 D_tmp_4__4_
*186 D_tmp_4__3_
*187 D_tmp_4__2_
*188 D_tmp_4__1_
*189 D_tmp_4__0_
*190 D_tmp_5__11_
*191 D_tmp_5__10_
*192 D_tmp_5__9_
*193 D_tmp_5__8_
*194 D_tmp_5__7_
*195 D_tmp_5__6_
*196 D_tmp_5__5_
*197 D_tmp_5__4_
*198 D_tmp_5__3_
*199 D_tmp_5__2_
*200 D_tmp_5__1_
*201 D_tmp_5__0_
*202 D_tmp_6__11_
*203 D_tmp_6__10_
*204 D_tmp_6__9_
*205 D_tmp_6__8_
*206 D_tmp_6__7_
*207 D_tmp_6__6_
*208 D_tmp_6__5_
*209 D_tmp_6__4_
*210 D_tmp_6__3_
*211 D_tmp_6__2_
*212 D_tmp_6__1_
*213 D_tmp_6__0_
*214 D_tmp_7__11_
*215 D_tmp_7__10_
*216 D_tmp_7__9_
*217 D_tmp_7__8_
*218 D_tmp_7__7_
*219 D_tmp_7__6_
*220 D_tmp_7__5_
*221 D_tmp_7__4_
*222 D_tmp_7__3_
*223 D_tmp_7__2_
*224 D_tmp_7__1_
*225 D_tmp_7__0_
*226 D_tmp_8__11_
*227 D_tmp_8__10_
*228 D_tmp_8__9_
*229 D_tmp_8__8_
*230 D_tmp_8__7_
*231 D_tmp_8__6_
*232 D_tmp_8__5_
*233 D_tmp_8__4_
*234 D_tmp_8__3_
*235 D_tmp_8__2_
*236 D_tmp_8__1_
*237 D_tmp_8__0_
*238 D_tmp_9__11_
*239 D_tmp_9__10_
*240 D_tmp_9__9_
*241 D_tmp_9__8_
*242 D_tmp_9__7_
*243 D_tmp_9__6_
*244 D_tmp_9__5_
*245 D_tmp_9__4_
*246 D_tmp_9__3_
*247 D_tmp_9__2_
*248 D_tmp_9__1_
*249 D_tmp_9__0_
*250 N109
*251 N110
*252 N111
*253 N112
*254 N113
*255 N114
*256 N115
*257 N116
*258 N117
*259 N118
*260 N119
*261 VAL_tmp
*262 n20
*263 n22
*264 n23
*265 n24
*266 n25
*267 n26
*268 n27
*269 n28
*270 n29
*271 n30
*272 n31
*273 n32
*274 N92
*275 N91
*276 N90
*277 N9
*278 N89
*279 N88
*280 N87
*281 N86
*282 N85
*283 N84
*284 N83
*285 N82
*286 N81
*287 N80
*288 N8
*289 N79
*290 N78
*291 N77
*292 N76
*293 N75
*294 N74
*295 N73
*296 N72
*297 N71
*298 N70
*299 N7
*300 N69
*301 N68
*302 N67
*303 N66
*304 N65
*305 N64
*306 N63
*307 N62
*308 N61
*309 N60
*310 N6
*311 N59
*312 N58
*313 N57
*314 N56
*315 N55
*316 N54
*317 N53
*318 N52
*319 N51
*320 N50
*321 N5
*322 N49
*323 N48
*324 N47
*325 N46
*326 N45
*327 N44
*328 N43
*329 N42
*330 N41
*331 N40
*332 N4
*333 N39
*334 N38
*335 N37
*336 N36
*337 N35
*338 N34
*339 N33
*340 N32
*341 N31
*342 N30
*343 N3
*344 N29
*345 N28
*346 N27
*347 N26
*348 N25
*349 N24
*350 N23
*351 N22
*352 N21
*353 N20
*354 N2
*355 N19
*356 N18
*357 N17
*358 N16
*359 N15
*360 N14
*361 N13
*362 N12
*363 N11
*364 N10
*365 M8_23_
*366 M8_22_
*367 M8_21_
*368 M8_20_
*369 M8_19_
*370 M8_18_
*371 M8_17_
*372 M8_16_
*373 M8_15_
*374 M8_14_
*375 M8_13_
*376 M8_12_
*377 M8_11_
*378 M7_23_
*379 M7_22_
*380 M7_21_
*381 M7_20_
*382 M7_19_
*383 M7_18_
*384 M7_17_
*385 M7_16_
*386 M7_15_
*387 M7_14_
*388 M7_13_
*389 M7_12_
*390 M7_11_
*391 M6_23_
*392 M6_22_
*393 M6_21_
*394 M6_20_
*395 M6_19_
*396 M6_18_
*397 M6_17_
*398 M6_16_
*399 M6_15_
*400 M6_14_
*401 M6_13_
*402 M6_12_
*403 M6_11_
*404 M5_23_
*405 M5_22_
*406 M5_21_
*407 M5_20_
*408 M5_19_
*409 M5_18_
*410 M5_17_
*411 M5_16_
*412 M5_15_
*413 M5_14_
*414 M5_13_
*415 M5_12_
*416 M5_11_
*417 M4_23_
*418 M4_22_
*419 M4_21_
*420 M4_20_
*421 M4_19_
*422 M4_18_
*423 M4_17_
*424 M4_16_
*425 M4_15_
*426 M4_14_
*427 M4_13_
*428 M4_12_
*429 M4_11_
*430 M3_23_
*431 M3_22_
*432 M3_21_
*433 M3_20_
*434 M3_19_
*435 M3_18_
*436 M3_17_
*437 M3_16_
*438 M3_15_
*439 M3_14_
*440 M3_13_
*441 M3_12_
*442 M3_11_
*443 M2_23_
*444 M2_22_
*445 M2_21_
*446 M2_20_
*447 M2_19_
*448 M2_18_
*449 M2_17_
*450 M2_16_
*451 M2_15_
*452 M2_14_
*453 M2_13_
*454 M2_12_
*455 M2_11_
*456 M1_23_
*457 M1_22_
*458 M1_21_
*459 M1_20_
*460 M1_19_
*461 M1_18_
*462 M1_17_
*463 M1_16_
*464 M1_15_
*465 M1_14_
*466 M1_13_
*467 M1_12_
*468 M1_11_
*469 M0_23_
*470 M0_22_
*471 M0_21_
*472 M0_20_
*473 M0_19_
*474 M0_18_
*475 M0_17_
*476 M0_16_
*477 M0_15_
*478 M0_14_
*479 M0_13_
*480 M0_12_
*481 M0_11_
*482 n33
*483 n36
*484 n37
*485 regs_0_n36
*486 regs_0_n35
*487 regs_0_n34
*488 regs_0_n33
*489 regs_0_n32
*490 regs_0_n31
*491 regs_0_n30
*492 regs_0_n29
*493 regs_0_n28
*494 regs_0_n27
*495 regs_0_n26
*496 regs_0_n25
*497 regs_0_n24
*498 regs_0_n23
*499 regs_0_n22
*500 regs_0_n21
*501 regs_0_n20
*502 regs_0_n19
*503 regs_0_n18
*504 regs_0_n17
*505 regs_0_n16
*506 regs_0_n15
*507 regs_0_n14
*508 regs_0_n13
*509 regs_0_n12
*510 regs_0_n11
*511 regs_0_n10
*512 regs_0_n9
*513 regs_0_n8
*514 regs_0_n7
*515 regs_0_n6
*516 regs_0_n5
*517 regs_0_n4
*518 regs_0_n3
*519 regs_0_n2
*520 regs_0_n1
*521 regs_1_n75
*522 regs_1_n74
*523 regs_1_n73
*524 regs_1_n72
*525 regs_1_n71
*526 regs_1_n70
*527 regs_1_n69
*528 regs_1_n68
*529 regs_1_n67
*530 regs_1_n66
*531 regs_1_n65
*532 regs_1_n64
*533 regs_1_n63
*534 regs_1_n62
*535 regs_1_n61
*536 regs_1_n60
*537 regs_1_n59
*538 regs_1_n58
*539 regs_1_n57
*540 regs_1_n56
*541 regs_1_n55
*542 regs_1_n54
*543 regs_1_n53
*544 regs_1_n52
*545 regs_1_n51
*546 regs_1_n50
*547 regs_1_n49
*548 regs_1_n48
*549 regs_1_n47
*550 regs_1_n46
*551 regs_1_n45
*552 regs_1_n44
*553 regs_1_n43
*554 regs_1_n42
*555 regs_1_n41
*556 regs_1_n40
*557 regs_2_n75
*558 regs_2_n74
*559 regs_2_n73
*560 regs_2_n72
*561 regs_2_n71
*562 regs_2_n70
*563 regs_2_n69
*564 regs_2_n68
*565 regs_2_n67
*566 regs_2_n66
*567 regs_2_n65
*568 regs_2_n64
*569 regs_2_n63
*570 regs_2_n62
*571 regs_2_n61
*572 regs_2_n60
*573 regs_2_n59
*574 regs_2_n58
*575 regs_2_n57
*576 regs_2_n56
*577 regs_2_n55
*578 regs_2_n54
*579 regs_2_n53
*580 regs_2_n52
*581 regs_2_n51
*582 regs_2_n50
*583 regs_2_n49
*584 regs_2_n48
*585 regs_2_n47
*586 regs_2_n46
*587 regs_2_n45
*588 regs_2_n44
*589 regs_2_n43
*590 regs_2_n42
*591 regs_2_n41
*592 regs_2_n40
*593 regs_3_n75
*594 regs_3_n74
*595 regs_3_n73
*596 regs_3_n72
*597 regs_3_n71
*598 regs_3_n70
*599 regs_3_n69
*600 regs_3_n68
*601 regs_3_n67
*602 regs_3_n66
*603 regs_3_n65
*604 regs_3_n64
*605 regs_3_n63
*606 regs_3_n62
*607 regs_3_n61
*608 regs_3_n60
*609 regs_3_n59
*610 regs_3_n58
*611 regs_3_n57
*612 regs_3_n56
*613 regs_3_n55
*614 regs_3_n54
*615 regs_3_n53
*616 regs_3_n52
*617 regs_3_n51
*618 regs_3_n50
*619 regs_3_n49
*620 regs_3_n48
*621 regs_3_n47
*622 regs_3_n46
*623 regs_3_n45
*624 regs_3_n44
*625 regs_3_n43
*626 regs_3_n42
*627 regs_3_n41
*628 regs_3_n40
*629 regs_4_n75
*630 regs_4_n74
*631 regs_4_n73
*632 regs_4_n72
*633 regs_4_n71
*634 regs_4_n70
*635 regs_4_n69
*636 regs_4_n68
*637 regs_4_n67
*638 regs_4_n66
*639 regs_4_n65
*640 regs_4_n64
*641 regs_4_n63
*642 regs_4_n62
*643 regs_4_n61
*644 regs_4_n60
*645 regs_4_n59
*646 regs_4_n58
*647 regs_4_n57
*648 regs_4_n56
*649 regs_4_n55
*650 regs_4_n54
*651 regs_4_n53
*652 regs_4_n52
*653 regs_4_n51
*654 regs_4_n50
*655 regs_4_n49
*656 regs_4_n48
*657 regs_4_n47
*658 regs_4_n46
*659 regs_4_n45
*660 regs_4_n44
*661 regs_4_n43
*662 regs_4_n42
*663 regs_4_n41
*664 regs_4_n40
*665 regs_5_n75
*666 regs_5_n74
*667 regs_5_n73
*668 regs_5_n72
*669 regs_5_n71
*670 regs_5_n70
*671 regs_5_n69
*672 regs_5_n68
*673 regs_5_n67
*674 regs_5_n66
*675 regs_5_n65
*676 regs_5_n64
*677 regs_5_n63
*678 regs_5_n62
*679 regs_5_n61
*680 regs_5_n60
*681 regs_5_n59
*682 regs_5_n58
*683 regs_5_n57
*684 regs_5_n56
*685 regs_5_n55
*686 regs_5_n54
*687 regs_5_n53
*688 regs_5_n52
*689 regs_5_n51
*690 regs_5_n50
*691 regs_5_n49
*692 regs_5_n48
*693 regs_5_n47
*694 regs_5_n46
*695 regs_5_n45
*696 regs_5_n44
*697 regs_5_n43
*698 regs_5_n42
*699 regs_5_n41
*700 regs_5_n40
*701 regs_6_n75
*702 regs_6_n74
*703 regs_6_n73
*704 regs_6_n72
*705 regs_6_n71
*706 regs_6_n70
*707 regs_6_n69
*708 regs_6_n68
*709 regs_6_n67
*710 regs_6_n66
*711 regs_6_n65
*712 regs_6_n64
*713 regs_6_n63
*714 regs_6_n62
*715 regs_6_n61
*716 regs_6_n60
*717 regs_6_n59
*718 regs_6_n58
*719 regs_6_n57
*720 regs_6_n56
*721 regs_6_n55
*722 regs_6_n54
*723 regs_6_n53
*724 regs_6_n52
*725 regs_6_n51
*726 regs_6_n50
*727 regs_6_n49
*728 regs_6_n48
*729 regs_6_n47
*730 regs_6_n46
*731 regs_6_n45
*732 regs_6_n44
*733 regs_6_n43
*734 regs_6_n42
*735 regs_6_n41
*736 regs_6_n40
*737 regs_7_n75
*738 regs_7_n74
*739 regs_7_n73
*740 regs_7_n72
*741 regs_7_n71
*742 regs_7_n70
*743 regs_7_n69
*744 regs_7_n68
*745 regs_7_n67
*746 regs_7_n66
*747 regs_7_n65
*748 regs_7_n64
*749 regs_7_n63
*750 regs_7_n62
*751 regs_7_n61
*752 regs_7_n60
*753 regs_7_n59
*754 regs_7_n58
*755 regs_7_n57
*756 regs_7_n56
*757 regs_7_n55
*758 regs_7_n54
*759 regs_7_n53
*760 regs_7_n52
*761 regs_7_n51
*762 regs_7_n50
*763 regs_7_n49
*764 regs_7_n48
*765 regs_7_n47
*766 regs_7_n46
*767 regs_7_n45
*768 regs_7_n44
*769 regs_7_n43
*770 regs_7_n42
*771 regs_7_n41
*772 regs_7_n40
*773 regs_8_n75
*774 regs_8_n74
*775 regs_8_n73
*776 regs_8_n72
*777 regs_8_n71
*778 regs_8_n70
*779 regs_8_n69
*780 regs_8_n68
*781 regs_8_n67
*782 regs_8_n66
*783 regs_8_n65
*784 regs_8_n64
*785 regs_8_n63
*786 regs_8_n62
*787 regs_8_n61
*788 regs_8_n60
*789 regs_8_n59
*790 regs_8_n58
*791 regs_8_n57
*792 regs_8_n56
*793 regs_8_n55
*794 regs_8_n54
*795 regs_8_n53
*796 regs_8_n52
*797 regs_8_n51
*798 regs_8_n50
*799 regs_8_n49
*800 regs_8_n48
*801 regs_8_n47
*802 regs_8_n46
*803 regs_8_n45
*804 regs_8_n44
*805 regs_8_n43
*806 regs_8_n42
*807 regs_8_n41
*808 regs_8_n40
*809 vout_reg1_n3
*810 vout_reg1_n2
*811 vout_reg1_n1
*812 vout_reg2_n5
*813 mult_50_n544
*814 mult_50_n543
*815 mult_50_n542
*816 mult_50_n541
*817 mult_50_n540
*818 mult_50_n539
*819 mult_50_n538
*820 mult_50_n537
*821 mult_50_n536
*822 mult_50_n535
*823 mult_50_n534
*824 mult_50_n533
*825 mult_50_n532
*826 mult_50_n531
*827 mult_50_n530
*828 mult_50_n529
*829 mult_50_n528
*830 mult_50_n527
*831 mult_50_n526
*832 mult_50_n525
*833 mult_50_n524
*834 mult_50_n523
*835 mult_50_n522
*836 mult_50_n521
*837 mult_50_n520
*838 mult_50_n519
*839 mult_50_n518
*840 mult_50_n517
*841 mult_50_n516
*842 mult_50_n515
*843 mult_50_n514
*844 mult_50_n513
*845 mult_50_n512
*846 mult_50_n511
*847 mult_50_n510
*848 mult_50_n509
*849 mult_50_n508
*850 mult_50_n507
*851 mult_50_n506
*852 mult_50_n505
*853 mult_50_n504
*854 mult_50_n503
*855 mult_50_n502
*856 mult_50_n501
*857 mult_50_n500
*858 mult_50_n499
*859 mult_50_n498
*860 mult_50_n497
*861 mult_50_n496
*862 mult_50_n495
*863 mult_50_n494
*864 mult_50_n493
*865 mult_50_n492
*866 mult_50_n491
*867 mult_50_n490
*868 mult_50_n489
*869 mult_50_n488
*870 mult_50_n487
*871 mult_50_n486
*872 mult_50_n485
*873 mult_50_n484
*874 mult_50_n483
*875 mult_50_n482
*876 mult_50_n481
*877 mult_50_n480
*878 mult_50_n479
*879 mult_50_n478
*880 mult_50_n477
*881 mult_50_n476
*882 mult_50_n475
*883 mult_50_n474
*884 mult_50_n473
*885 mult_50_n472
*886 mult_50_n471
*887 mult_50_n470
*888 mult_50_n469
*889 mult_50_n468
*890 mult_50_n467
*891 mult_50_n466
*892 mult_50_n465
*893 mult_50_n464
*894 mult_50_n463
*895 mult_50_n462
*896 mult_50_n461
*897 mult_50_n460
*898 mult_50_n459
*899 mult_50_n458
*900 mult_50_n457
*901 mult_50_n456
*902 mult_50_n455
*903 mult_50_n454
*904 mult_50_n453
*905 mult_50_n452
*906 mult_50_n451
*907 mult_50_n450
*908 mult_50_n449
*909 mult_50_n448
*910 mult_50_n447
*911 mult_50_n446
*912 mult_50_n445
*913 mult_50_n444
*914 mult_50_n443
*915 mult_50_n442
*916 mult_50_n441
*917 mult_50_n440
*918 mult_50_n439
*919 mult_50_n438
*920 mult_50_n437
*921 mult_50_n436
*922 mult_50_n435
*923 mult_50_n434
*924 mult_50_n433
*925 mult_50_n432
*926 mult_50_n431
*927 mult_50_n430
*928 mult_50_n429
*929 mult_50_n428
*930 mult_50_n427
*931 mult_50_n426
*932 mult_50_n425
*933 mult_50_n424
*934 mult_50_n423
*935 mult_50_n422
*936 mult_50_n421
*937 mult_50_n420
*938 mult_50_n419
*939 mult_50_n418
*940 mult_50_n417
*941 mult_50_n416
*942 mult_50_n415
*943 mult_50_n414
*944 mult_50_n413
*945 mult_50_n412
*946 mult_50_n411
*947 mult_50_n410
*948 mult_50_n409
*949 mult_50_n408
*950 mult_50_n407
*951 mult_50_n406
*952 mult_50_n405
*953 mult_50_n404
*954 mult_50_n403
*955 mult_50_n227
*956 mult_50_n226
*957 mult_50_n225
*958 mult_50_n224
*959 mult_50_n223
*960 mult_50_n222
*961 mult_50_n221
*962 mult_50_n220
*963 mult_50_n219
*964 mult_50_n216
*965 mult_50_n215
*966 mult_50_n214
*967 mult_50_n213
*968 mult_50_n212
*969 mult_50_n211
*970 mult_50_n210
*971 mult_50_n209
*972 mult_50_n208
*973 mult_50_n207
*974 mult_50_n205
*975 mult_50_n204
*976 mult_50_n203
*977 mult_50_n202
*978 mult_50_n201
*979 mult_50_n200
*980 mult_50_n199
*981 mult_50_n198
*982 mult_50_n196
*983 mult_50_n195
*984 mult_50_n193
*985 mult_50_n192
*986 mult_50_n191
*987 mult_50_n190
*988 mult_50_n189
*989 mult_50_n188
*990 mult_50_n187
*991 mult_50_n186
*992 mult_50_n185
*993 mult_50_n184
*994 mult_50_n183
*995 mult_50_n181
*996 mult_50_n180
*997 mult_50_n179
*998 mult_50_n178
*999 mult_50_n176
*1000 mult_50_n175
*1001 mult_50_n174
*1002 mult_50_n173
*1003 mult_50_n172
*1004 mult_50_n171
*1005 mult_50_n169
*1006 mult_50_n168
*1007 mult_50_n167
*1008 mult_50_n166
*1009 mult_50_n165
*1010 mult_50_n164
*1011 mult_50_n163
*1012 mult_50_n162
*1013 mult_50_n161
*1014 mult_50_n160
*1015 mult_50_n159
*1016 mult_50_n155
*1017 mult_50_n154
*1018 mult_50_n153
*1019 mult_50_n152
*1020 mult_50_n134
*1021 mult_50_n133
*1022 mult_50_n132
*1023 mult_50_n131
*1024 mult_50_n130
*1025 mult_50_n129
*1026 mult_50_n128
*1027 mult_50_n127
*1028 mult_50_n126
*1029 mult_50_n125
*1030 mult_50_n124
*1031 mult_50_n123
*1032 mult_50_n122
*1033 mult_50_n121
*1034 mult_50_n120
*1035 mult_50_n119
*1036 mult_50_n118
*1037 mult_50_n117
*1038 mult_50_n116
*1039 mult_50_n115
*1040 mult_50_n114
*1041 mult_50_n113
*1042 mult_50_n112
*1043 mult_50_n111
*1044 mult_50_n110
*1045 mult_50_n109
*1046 mult_50_n108
*1047 mult_50_n107
*1048 mult_50_n106
*1049 mult_50_n105
*1050 mult_50_n104
*1051 mult_50_n103
*1052 mult_50_n102
*1053 mult_50_n101
*1054 mult_50_n100
*1055 mult_50_n99
*1056 mult_50_n98
*1057 mult_50_n97
*1058 mult_50_n96
*1059 mult_50_n95
*1060 mult_50_n94
*1061 mult_50_n93
*1062 mult_50_n92
*1063 mult_50_n91
*1064 mult_50_n90
*1065 mult_50_n89
*1066 mult_50_n88
*1067 mult_50_n87
*1068 mult_50_n86
*1069 mult_50_n85
*1070 mult_50_n84
*1071 mult_50_n83
*1072 mult_50_n82
*1073 mult_50_n81
*1074 mult_50_n80
*1075 mult_50_n79
*1076 mult_50_n78
*1077 mult_50_n77
*1078 mult_50_n76
*1079 mult_50_n75
*1080 mult_50_n73
*1081 mult_50_n72
*1082 mult_50_n71
*1083 mult_50_n70
*1084 mult_50_n69
*1085 mult_50_n68
*1086 mult_50_n67
*1087 mult_50_n66
*1088 mult_50_n65
*1089 mult_50_n64
*1090 mult_50_n63
*1091 mult_50_n62
*1092 mult_50_n61
*1093 mult_50_n60
*1094 mult_50_n59
*1095 mult_50_n58
*1096 mult_50_n57
*1097 mult_50_n55
*1098 mult_50_n54
*1099 mult_50_n53
*1100 mult_50_n52
*1101 mult_50_n51
*1102 mult_50_n50
*1103 mult_50_n49
*1104 mult_50_n48
*1105 mult_50_n47
*1106 mult_50_n46
*1107 mult_50_n45
*1108 mult_50_n44
*1109 mult_50_n43
*1110 mult_50_n41
*1111 mult_50_n40
*1112 mult_50_n39
*1113 mult_50_n38
*1114 mult_50_n37
*1115 mult_50_n36
*1116 mult_50_n35
*1117 mult_50_n34
*1118 mult_50_n33
*1119 mult_50_n31
*1120 mult_50_n30
*1121 mult_50_n29
*1122 mult_50_n28
*1123 mult_50_n27
*1124 mult_50_n25
*1125 mult_50_n15
*1126 mult_50_n14
*1127 mult_50_n13
*1128 mult_50_n12
*1129 mult_50_n11
*1130 mult_50_n10
*1131 mult_50_n9
*1132 mult_50_n8
*1133 mult_50_n7
*1134 mult_50_n6
*1135 mult_50_n5
*1136 mult_50_n4
*1137 mult_50_n3
*1138 mult_51_n544
*1139 mult_51_n543
*1140 mult_51_n542
*1141 mult_51_n541
*1142 mult_51_n540
*1143 mult_51_n539
*1144 mult_51_n538
*1145 mult_51_n537
*1146 mult_51_n536
*1147 mult_51_n535
*1148 mult_51_n534
*1149 mult_51_n533
*1150 mult_51_n532
*1151 mult_51_n531
*1152 mult_51_n530
*1153 mult_51_n529
*1154 mult_51_n528
*1155 mult_51_n527
*1156 mult_51_n526
*1157 mult_51_n525
*1158 mult_51_n524
*1159 mult_51_n523
*1160 mult_51_n522
*1161 mult_51_n521
*1162 mult_51_n520
*1163 mult_51_n519
*1164 mult_51_n518
*1165 mult_51_n517
*1166 mult_51_n516
*1167 mult_51_n515
*1168 mult_51_n514
*1169 mult_51_n513
*1170 mult_51_n512
*1171 mult_51_n511
*1172 mult_51_n510
*1173 mult_51_n509
*1174 mult_51_n508
*1175 mult_51_n507
*1176 mult_51_n506
*1177 mult_51_n505
*1178 mult_51_n504
*1179 mult_51_n503
*1180 mult_51_n502
*1181 mult_51_n501
*1182 mult_51_n500
*1183 mult_51_n499
*1184 mult_51_n498
*1185 mult_51_n497
*1186 mult_51_n496
*1187 mult_51_n495
*1188 mult_51_n494
*1189 mult_51_n493
*1190 mult_51_n492
*1191 mult_51_n491
*1192 mult_51_n490
*1193 mult_51_n489
*1194 mult_51_n488
*1195 mult_51_n487
*1196 mult_51_n486
*1197 mult_51_n485
*1198 mult_51_n484
*1199 mult_51_n483
*1200 mult_51_n482
*1201 mult_51_n481
*1202 mult_51_n480
*1203 mult_51_n479
*1204 mult_51_n478
*1205 mult_51_n477
*1206 mult_51_n476
*1207 mult_51_n475
*1208 mult_51_n474
*1209 mult_51_n473
*1210 mult_51_n472
*1211 mult_51_n471
*1212 mult_51_n470
*1213 mult_51_n469
*1214 mult_51_n468
*1215 mult_51_n467
*1216 mult_51_n466
*1217 mult_51_n465
*1218 mult_51_n464
*1219 mult_51_n463
*1220 mult_51_n462
*1221 mult_51_n461
*1222 mult_51_n460
*1223 mult_51_n459
*1224 mult_51_n458
*1225 mult_51_n457
*1226 mult_51_n456
*1227 mult_51_n455
*1228 mult_51_n454
*1229 mult_51_n453
*1230 mult_51_n452
*1231 mult_51_n451
*1232 mult_51_n450
*1233 mult_51_n449
*1234 mult_51_n448
*1235 mult_51_n447
*1236 mult_51_n446
*1237 mult_51_n445
*1238 mult_51_n444
*1239 mult_51_n443
*1240 mult_51_n442
*1241 mult_51_n441
*1242 mult_51_n440
*1243 mult_51_n439
*1244 mult_51_n438
*1245 mult_51_n437
*1246 mult_51_n436
*1247 mult_51_n435
*1248 mult_51_n434
*1249 mult_51_n433
*1250 mult_51_n432
*1251 mult_51_n431
*1252 mult_51_n430
*1253 mult_51_n429
*1254 mult_51_n428
*1255 mult_51_n427
*1256 mult_51_n426
*1257 mult_51_n425
*1258 mult_51_n424
*1259 mult_51_n423
*1260 mult_51_n422
*1261 mult_51_n421
*1262 mult_51_n420
*1263 mult_51_n419
*1264 mult_51_n418
*1265 mult_51_n417
*1266 mult_51_n416
*1267 mult_51_n415
*1268 mult_51_n414
*1269 mult_51_n413
*1270 mult_51_n412
*1271 mult_51_n411
*1272 mult_51_n410
*1273 mult_51_n409
*1274 mult_51_n408
*1275 mult_51_n407
*1276 mult_51_n406
*1277 mult_51_n405
*1278 mult_51_n404
*1279 mult_51_n403
*1280 mult_51_n227
*1281 mult_51_n226
*1282 mult_51_n225
*1283 mult_51_n224
*1284 mult_51_n223
*1285 mult_51_n222
*1286 mult_51_n221
*1287 mult_51_n220
*1288 mult_51_n219
*1289 mult_51_n216
*1290 mult_51_n215
*1291 mult_51_n214
*1292 mult_51_n213
*1293 mult_51_n212
*1294 mult_51_n211
*1295 mult_51_n210
*1296 mult_51_n209
*1297 mult_51_n208
*1298 mult_51_n207
*1299 mult_51_n205
*1300 mult_51_n204
*1301 mult_51_n203
*1302 mult_51_n202
*1303 mult_51_n201
*1304 mult_51_n200
*1305 mult_51_n199
*1306 mult_51_n198
*1307 mult_51_n196
*1308 mult_51_n195
*1309 mult_51_n193
*1310 mult_51_n192
*1311 mult_51_n191
*1312 mult_51_n190
*1313 mult_51_n189
*1314 mult_51_n188
*1315 mult_51_n187
*1316 mult_51_n186
*1317 mult_51_n185
*1318 mult_51_n184
*1319 mult_51_n183
*1320 mult_51_n181
*1321 mult_51_n180
*1322 mult_51_n179
*1323 mult_51_n178
*1324 mult_51_n176
*1325 mult_51_n175
*1326 mult_51_n174
*1327 mult_51_n173
*1328 mult_51_n172
*1329 mult_51_n171
*1330 mult_51_n169
*1331 mult_51_n168
*1332 mult_51_n167
*1333 mult_51_n166
*1334 mult_51_n165
*1335 mult_51_n164
*1336 mult_51_n163
*1337 mult_51_n162
*1338 mult_51_n161
*1339 mult_51_n160
*1340 mult_51_n159
*1341 mult_51_n155
*1342 mult_51_n154
*1343 mult_51_n153
*1344 mult_51_n152
*1345 mult_51_n134
*1346 mult_51_n133
*1347 mult_51_n132
*1348 mult_51_n131
*1349 mult_51_n130
*1350 mult_51_n129
*1351 mult_51_n128
*1352 mult_51_n127
*1353 mult_51_n126
*1354 mult_51_n125
*1355 mult_51_n124
*1356 mult_51_n123
*1357 mult_51_n122
*1358 mult_51_n121
*1359 mult_51_n120
*1360 mult_51_n119
*1361 mult_51_n118
*1362 mult_51_n117
*1363 mult_51_n116
*1364 mult_51_n115
*1365 mult_51_n114
*1366 mult_51_n113
*1367 mult_51_n112
*1368 mult_51_n111
*1369 mult_51_n110
*1370 mult_51_n109
*1371 mult_51_n108
*1372 mult_51_n107
*1373 mult_51_n106
*1374 mult_51_n105
*1375 mult_51_n104
*1376 mult_51_n103
*1377 mult_51_n102
*1378 mult_51_n101
*1379 mult_51_n100
*1380 mult_51_n99
*1381 mult_51_n98
*1382 mult_51_n97
*1383 mult_51_n96
*1384 mult_51_n95
*1385 mult_51_n94
*1386 mult_51_n93
*1387 mult_51_n92
*1388 mult_51_n91
*1389 mult_51_n90
*1390 mult_51_n89
*1391 mult_51_n88
*1392 mult_51_n87
*1393 mult_51_n86
*1394 mult_51_n85
*1395 mult_51_n84
*1396 mult_51_n83
*1397 mult_51_n82
*1398 mult_51_n81
*1399 mult_51_n80
*1400 mult_51_n79
*1401 mult_51_n78
*1402 mult_51_n77
*1403 mult_51_n76
*1404 mult_51_n75
*1405 mult_51_n73
*1406 mult_51_n72
*1407 mult_51_n71
*1408 mult_51_n70
*1409 mult_51_n69
*1410 mult_51_n68
*1411 mult_51_n67
*1412 mult_51_n66
*1413 mult_51_n65
*1414 mult_51_n64
*1415 mult_51_n63
*1416 mult_51_n62
*1417 mult_51_n61
*1418 mult_51_n60
*1419 mult_51_n59
*1420 mult_51_n58
*1421 mult_51_n57
*1422 mult_51_n55
*1423 mult_51_n54
*1424 mult_51_n53
*1425 mult_51_n52
*1426 mult_51_n51
*1427 mult_51_n50
*1428 mult_51_n49
*1429 mult_51_n48
*1430 mult_51_n47
*1431 mult_51_n46
*1432 mult_51_n45
*1433 mult_51_n44
*1434 mult_51_n43
*1435 mult_51_n41
*1436 mult_51_n40
*1437 mult_51_n39
*1438 mult_51_n38
*1439 mult_51_n37
*1440 mult_51_n36
*1441 mult_51_n35
*1442 mult_51_n34
*1443 mult_51_n33
*1444 mult_51_n31
*1445 mult_51_n30
*1446 mult_51_n29
*1447 mult_51_n28
*1448 mult_51_n27
*1449 mult_51_n25
*1450 mult_51_n15
*1451 mult_51_n14
*1452 mult_51_n13
*1453 mult_51_n12
*1454 mult_51_n11
*1455 mult_51_n10
*1456 mult_51_n9
*1457 mult_51_n8
*1458 mult_51_n7
*1459 mult_51_n6
*1460 mult_51_n5
*1461 mult_51_n4
*1462 mult_51_n3
*1463 mult_53_n544
*1464 mult_53_n543
*1465 mult_53_n542
*1466 mult_53_n541
*1467 mult_53_n540
*1468 mult_53_n539
*1469 mult_53_n538
*1470 mult_53_n537
*1471 mult_53_n536
*1472 mult_53_n535
*1473 mult_53_n534
*1474 mult_53_n533
*1475 mult_53_n532
*1476 mult_53_n531
*1477 mult_53_n530
*1478 mult_53_n529
*1479 mult_53_n528
*1480 mult_53_n527
*1481 mult_53_n526
*1482 mult_53_n525
*1483 mult_53_n524
*1484 mult_53_n523
*1485 mult_53_n522
*1486 mult_53_n521
*1487 mult_53_n520
*1488 mult_53_n519
*1489 mult_53_n518
*1490 mult_53_n517
*1491 mult_53_n516
*1492 mult_53_n515
*1493 mult_53_n514
*1494 mult_53_n513
*1495 mult_53_n512
*1496 mult_53_n511
*1497 mult_53_n510
*1498 mult_53_n509
*1499 mult_53_n508
*1500 mult_53_n507
*1501 mult_53_n506
*1502 mult_53_n505
*1503 mult_53_n504
*1504 mult_53_n503
*1505 mult_53_n502
*1506 mult_53_n501
*1507 mult_53_n500
*1508 mult_53_n499
*1509 mult_53_n498
*1510 mult_53_n497
*1511 mult_53_n496
*1512 mult_53_n495
*1513 mult_53_n494
*1514 mult_53_n493
*1515 mult_53_n492
*1516 mult_53_n491
*1517 mult_53_n490
*1518 mult_53_n489
*1519 mult_53_n488
*1520 mult_53_n487
*1521 mult_53_n486
*1522 mult_53_n485
*1523 mult_53_n484
*1524 mult_53_n483
*1525 mult_53_n482
*1526 mult_53_n481
*1527 mult_53_n480
*1528 mult_53_n479
*1529 mult_53_n478
*1530 mult_53_n477
*1531 mult_53_n476
*1532 mult_53_n475
*1533 mult_53_n474
*1534 mult_53_n473
*1535 mult_53_n472
*1536 mult_53_n471
*1537 mult_53_n470
*1538 mult_53_n469
*1539 mult_53_n468
*1540 mult_53_n467
*1541 mult_53_n466
*1542 mult_53_n465
*1543 mult_53_n464
*1544 mult_53_n463
*1545 mult_53_n462
*1546 mult_53_n461
*1547 mult_53_n460
*1548 mult_53_n459
*1549 mult_53_n458
*1550 mult_53_n457
*1551 mult_53_n456
*1552 mult_53_n455
*1553 mult_53_n454
*1554 mult_53_n453
*1555 mult_53_n452
*1556 mult_53_n451
*1557 mult_53_n450
*1558 mult_53_n449
*1559 mult_53_n448
*1560 mult_53_n447
*1561 mult_53_n446
*1562 mult_53_n445
*1563 mult_53_n444
*1564 mult_53_n443
*1565 mult_53_n442
*1566 mult_53_n441
*1567 mult_53_n440
*1568 mult_53_n439
*1569 mult_53_n438
*1570 mult_53_n437
*1571 mult_53_n436
*1572 mult_53_n435
*1573 mult_53_n434
*1574 mult_53_n433
*1575 mult_53_n432
*1576 mult_53_n431
*1577 mult_53_n430
*1578 mult_53_n429
*1579 mult_53_n428
*1580 mult_53_n427
*1581 mult_53_n426
*1582 mult_53_n425
*1583 mult_53_n424
*1584 mult_53_n423
*1585 mult_53_n422
*1586 mult_53_n421
*1587 mult_53_n420
*1588 mult_53_n419
*1589 mult_53_n418
*1590 mult_53_n417
*1591 mult_53_n416
*1592 mult_53_n415
*1593 mult_53_n414
*1594 mult_53_n413
*1595 mult_53_n412
*1596 mult_53_n411
*1597 mult_53_n410
*1598 mult_53_n409
*1599 mult_53_n408
*1600 mult_53_n407
*1601 mult_53_n406
*1602 mult_53_n405
*1603 mult_53_n404
*1604 mult_53_n403
*1605 mult_53_n227
*1606 mult_53_n226
*1607 mult_53_n225
*1608 mult_53_n224
*1609 mult_53_n223
*1610 mult_53_n222
*1611 mult_53_n221
*1612 mult_53_n220
*1613 mult_53_n219
*1614 mult_53_n216
*1615 mult_53_n215
*1616 mult_53_n214
*1617 mult_53_n213
*1618 mult_53_n212
*1619 mult_53_n211
*1620 mult_53_n210
*1621 mult_53_n209
*1622 mult_53_n208
*1623 mult_53_n207
*1624 mult_53_n205
*1625 mult_53_n204
*1626 mult_53_n203
*1627 mult_53_n202
*1628 mult_53_n201
*1629 mult_53_n200
*1630 mult_53_n199
*1631 mult_53_n198
*1632 mult_53_n196
*1633 mult_53_n195
*1634 mult_53_n193
*1635 mult_53_n192
*1636 mult_53_n191
*1637 mult_53_n190
*1638 mult_53_n189
*1639 mult_53_n188
*1640 mult_53_n187
*1641 mult_53_n186
*1642 mult_53_n185
*1643 mult_53_n184
*1644 mult_53_n183
*1645 mult_53_n181
*1646 mult_53_n180
*1647 mult_53_n179
*1648 mult_53_n178
*1649 mult_53_n176
*1650 mult_53_n175
*1651 mult_53_n174
*1652 mult_53_n173
*1653 mult_53_n172
*1654 mult_53_n171
*1655 mult_53_n169
*1656 mult_53_n168
*1657 mult_53_n167
*1658 mult_53_n166
*1659 mult_53_n165
*1660 mult_53_n164
*1661 mult_53_n163
*1662 mult_53_n162
*1663 mult_53_n161
*1664 mult_53_n160
*1665 mult_53_n159
*1666 mult_53_n155
*1667 mult_53_n154
*1668 mult_53_n153
*1669 mult_53_n152
*1670 mult_53_n134
*1671 mult_53_n133
*1672 mult_53_n132
*1673 mult_53_n131
*1674 mult_53_n130
*1675 mult_53_n129
*1676 mult_53_n128
*1677 mult_53_n127
*1678 mult_53_n126
*1679 mult_53_n125
*1680 mult_53_n124
*1681 mult_53_n123
*1682 mult_53_n122
*1683 mult_53_n121
*1684 mult_53_n120
*1685 mult_53_n119
*1686 mult_53_n118
*1687 mult_53_n117
*1688 mult_53_n116
*1689 mult_53_n115
*1690 mult_53_n114
*1691 mult_53_n113
*1692 mult_53_n112
*1693 mult_53_n111
*1694 mult_53_n110
*1695 mult_53_n109
*1696 mult_53_n108
*1697 mult_53_n107
*1698 mult_53_n106
*1699 mult_53_n105
*1700 mult_53_n104
*1701 mult_53_n103
*1702 mult_53_n102
*1703 mult_53_n101
*1704 mult_53_n100
*1705 mult_53_n99
*1706 mult_53_n98
*1707 mult_53_n97
*1708 mult_53_n96
*1709 mult_53_n95
*1710 mult_53_n94
*1711 mult_53_n93
*1712 mult_53_n92
*1713 mult_53_n91
*1714 mult_53_n90
*1715 mult_53_n89
*1716 mult_53_n88
*1717 mult_53_n87
*1718 mult_53_n86
*1719 mult_53_n85
*1720 mult_53_n84
*1721 mult_53_n83
*1722 mult_53_n82
*1723 mult_53_n81
*1724 mult_53_n80
*1725 mult_53_n79
*1726 mult_53_n78
*1727 mult_53_n77
*1728 mult_53_n76
*1729 mult_53_n75
*1730 mult_53_n73
*1731 mult_53_n72
*1732 mult_53_n71
*1733 mult_53_n70
*1734 mult_53_n69
*1735 mult_53_n68
*1736 mult_53_n67
*1737 mult_53_n66
*1738 mult_53_n65
*1739 mult_53_n64
*1740 mult_53_n63
*1741 mult_53_n62
*1742 mult_53_n61
*1743 mult_53_n60
*1744 mult_53_n59
*1745 mult_53_n58
*1746 mult_53_n57
*1747 mult_53_n55
*1748 mult_53_n54
*1749 mult_53_n53
*1750 mult_53_n52
*1751 mult_53_n51
*1752 mult_53_n50
*1753 mult_53_n49
*1754 mult_53_n48
*1755 mult_53_n47
*1756 mult_53_n46
*1757 mult_53_n45
*1758 mult_53_n44
*1759 mult_53_n43
*1760 mult_53_n41
*1761 mult_53_n40
*1762 mult_53_n39
*1763 mult_53_n38
*1764 mult_53_n37
*1765 mult_53_n36
*1766 mult_53_n35
*1767 mult_53_n34
*1768 mult_53_n33
*1769 mult_53_n31
*1770 mult_53_n30
*1771 mult_53_n29
*1772 mult_53_n28
*1773 mult_53_n27
*1774 mult_53_n25
*1775 mult_53_n15
*1776 mult_53_n14
*1777 mult_53_n13
*1778 mult_53_n12
*1779 mult_53_n11
*1780 mult_53_n10
*1781 mult_53_n9
*1782 mult_53_n8
*1783 mult_53_n7
*1784 mult_53_n6
*1785 mult_53_n5
*1786 mult_53_n4
*1787 mult_53_n3
*1788 mult_55_n544
*1789 mult_55_n543
*1790 mult_55_n542
*1791 mult_55_n541
*1792 mult_55_n540
*1793 mult_55_n539
*1794 mult_55_n538
*1795 mult_55_n537
*1796 mult_55_n536
*1797 mult_55_n535
*1798 mult_55_n534
*1799 mult_55_n533
*1800 mult_55_n532
*1801 mult_55_n531
*1802 mult_55_n530
*1803 mult_55_n529
*1804 mult_55_n528
*1805 mult_55_n527
*1806 mult_55_n526
*1807 mult_55_n525
*1808 mult_55_n524
*1809 mult_55_n523
*1810 mult_55_n522
*1811 mult_55_n521